/*--------------------------------*- C++ -*----------------------------------*\
| =========                 |                                                 |
| \\      /  F ield         | foam-extend: Open Source CFD                    |
|  \\    /   O peration     | Version:     3.1                                |
|   \\  /    A nd           | Web:         http://www.extend-project.de       |
|    \\/     M anipulation  |                                                 |
\*---------------------------------------------------------------------------*/
FoamFile
{
    version	2.0;
    format	ascii;
    class	dictionary;
    object	waveProperties;
}
// * * * * * * * * * * * * * * * * * * * * * * * * * * * * * * * * * * * * * //

seaLevel            0;

relaxationNames     ( inlet );

initializationName  init;

inletCoeffs
{
    waveType            streamFunction;
    N                   32;
    Tsoft               0;
    depth               0.4;
    phi                 0;
    height              0.128;

    specifyPeriod       true;
    period              5.0000046052168;

    specifyEuler        false;
    stokesVelocity      0;

    omega               1.2566359040198;
    waveNumber          (0.5941825 0 0);
    uBar                2.1305214377639;
    A                   nonuniform List<scalar>
    32
    (
        0.035917079348517
        0.026971511278101
        0.017906451300737
        0.01107923912266
        0.006615694672933
        0.0038926424120535
        0.002284483302689
        0.0013466283507172
        0.00080037530556689
        0.00048052913035978
        0.00029157708279864
        0.00017876157577849
        0.00011065505968284
        6.9095606147943e-05
        4.3480748759851e-05
        2.7549784788344e-05
        1.7561439456733e-05
        1.125443782003e-05
        7.2467634102317e-06
        4.6860350144947e-06
        3.0417927152011e-06
        1.9814282648849e-06
        1.2949943830389e-06
        8.4916166329369e-07
        5.5885186790254e-07
        3.6954302760516e-07
        2.4618867098913e-07
        1.6625784165639e-07
        1.1531507575534e-07
        8.4254416782722e-08
        6.7568129320537e-08
        6.2314019682505e-08
    );
    B                   nonuniform List<scalar>
    32
    (
        0.17242239156954
        0.13061104345681
        0.08708463407889
        0.053222362715012
        0.030485824493466
        0.016511323758279
        0.0084621648610137
        0.0040830883559463
        0.0018326723157235
        0.00074630702622538
        0.00025994841754409
        6.3402453439265e-05
        -3.7209190526423e-06
        -1.8942632054809e-05
        -1.6795930717124e-05
        -1.1023850969897e-05
        -6.130249584058e-06
        -2.9701322826541e-06
        -1.2278427082339e-06
        -3.8861584138046e-07
        -4.3576472800053e-08
        6.4671328162411e-08
        7.6059169994913e-08
        5.7320533890775e-08
        3.5622597341554e-08
        1.9342708726355e-08
        9.2429766818513e-09
        3.7546225724517e-09
        1.1117346168091e-09
        -1.2574000778976e-12
        -3.9482742767087e-10
        -2.4327678193962e-10
    );

    relaxationZone
    {
        relaxationScheme    Spatial;
        relaxationShape     Rectangular;
        beachType           Empty;
        relaxType           INLET;
        startX              ( -24.7 0 -1 );
        endX                ( -14.7 0 1 );
        orientation         ( 1 0 0 );
    }
}

initCoeffs
{
    waveType            potentialCurrent;
    U                   ( 0 0 0 );
    Tsoft               5;
}



// ************************************************************************* //
